<routes xmlns:xsi="http://www.w3.org/2001/XMLSchema-instance" xsi:noNamespaceSchemaLocation="http://sumo.dlr.de/xsd/routes_file.xsd">
  <vType id="SUMO_DEFAULT_TYPE" accel="0.8" decel="4.5" sigma="0" length="5" minGap="2" maxSpeed="70"/>
  <flow id="f01" begin="0" end="0.5"   from="285605886" to="108693796" period="0.1"/>


  <flow id="f02" begin="0" end="1"  from="27027377" to="229187745#0" period="0.1"/>
  <flow id="f03" begin="0" end="1"  from="27027377" to="229735991#0" period="0.1"/>
  <flow id="f04" begin="0" end="1"  from="27027508" to="112422904#0" period="0.1"/>
  <flow id="f05" begin="0" end="1"  from="27027508" to="28620204" period="0.1"/>
  <flow id="f06" begin="0" end="1"  from="288143105" to="288143106#0" period="0.1"/>
  <flow id="f07" begin="0" end="1"  from="288143106#0" to="288143105" period="0.1"/>
  <flow id="f09" begin="0" end="1"  from="219333277#0" to="287533409#0" period="0.1"/>
<!--

  <flow id="f08" begin="0" end="1"  from="27925224#0" to="229187741" period="0.1"/>


  <flow id="f" begin="0" end="100" number="23" from="477243786#0" to="2911553914#0"/>
  <route id="always_right" edges="e10 e11 e20 e21"/> 
  <flow id="always_right" type="SUMO_DEFAULT_TYPE" route="always_right" begin="0" end="10" period="0.1"/> 
-->
</routes>
