<?xml version="1.0" encoding="UTF-8"?>

<!-- generated on Tue Mar 10 12:42:07 2015 by SUMO netconvert Version 0.22.0
<?xml version="1.0" encoding="UTF-8"?>

<configuration xmlns:xsi="http://www.w3.org/2001/XMLSchema-instance" xsi:noNamespaceSchemaLocation="http://sumo.dlr.de/xsd/netconvertConfiguration.xsd">

    <input>
        <osm-files value="map.osm"/>
    </input>

    <output>
        <output-file value="bi.net.xml"/>
    </output>

    <projection>
        <proj.utm value="true"/>
    </projection>

    <edge_removal>
        <remove-edges.by-vclass value="rail_slow,rail_fast,bicycle,pedestrian"/>
    </edge_removal>

</configuration>
-->

<net version="0.13" xmlns:xsi="http://www.w3.org/2001/XMLSchema-instance" xsi:noNamespaceSchemaLocation="http://sumo.dlr.de/xsd/net_file.xsd">

    <location netOffset="-476679.51,3327061.96" convBoundary="0.00,0.00,2120.32,4546.37" origBoundary="-51.243015,-30.075122,-51.213497,-30.033463" projParameter="+proj=utm +zone=22 +ellps=WGS84 +datum=WGS84 +units=m +no_defs"/>

    <edge id=":1172835897_0" function="internal">
        <lane id=":1172835897_0_0" index="0" speed="13.89" length="7.90" shape="1563.36,3144.03 1563.13,3145.46 1562.05,3146.57 1560.12,3147.37 1557.35,3147.85"/>
    </edge>
    <edge id=":1172835897_1" function="internal">
        <lane id=":1172835897_1_0" index="0" speed="13.89" length="4.82" shape="1563.36,3144.03 1562.69,3145.36 1561.92,3145.87 1561.05,3145.56 1560.09,3144.43"/>
    </edge>
    <edge id=":1172835911_0" function="internal">
        <lane id=":1172835911_0_0" index="0" speed="13.89" length="5.34" shape="1554.87,3341.06 1553.64,3341.42 1552.71,3342.16 1552.06,3343.29 1551.71,3344.82"/>
    </edge>
    <edge id=":1172835911_1" function="internal">
        <lane id=":1172835911_1_0" index="0" speed="13.89" length="9.16" shape="1554.87,3341.06 1545.72,3340.99"/>
    </edge>
    <edge id=":1172835911_2" function="internal">
        <lane id=":1172835911_2_0" index="0" speed="13.89" length="2.41" shape="1554.87,3341.06 1553.55,3340.38 1553.04,3339.61"/>
    </edge>
    <edge id=":1172835911_9" function="internal">
        <lane id=":1172835911_9_0" index="0" speed="13.89" length="2.41" shape="1553.04,3339.61 1553.36,3338.74 1554.50,3337.78"/>
    </edge>
    <edge id=":1172835911_3" function="internal">
        <lane id=":1172835911_3_0" index="0" speed="13.89" length="8.41" shape="1546.09,3337.71 1554.50,3337.78"/>
    </edge>
    <edge id=":1172835911_4" function="internal">
        <lane id=":1172835911_4_0" index="0" speed="13.89" length="6.47" shape="1546.09,3337.71 1548.84,3338.42 1550.69,3339.85 1551.22,3341.03"/>
    </edge>
    <edge id=":1172835911_5" function="internal">
        <lane id=":1172835911_5_0" index="0" speed="13.89" length="2.41" shape="1546.09,3337.71 1547.23,3338.67 1547.54,3339.53"/>
    </edge>
    <edge id=":1172835911_10" function="internal">
        <lane id=":1172835911_10_0" index="0" speed="13.89" length="3.88" shape="1551.22,3341.03 1551.65,3341.98 1551.71,3344.82"/>
    </edge>
    <edge id=":1172835911_11" function="internal">
        <lane id=":1172835911_11_0" index="0" speed="13.89" length="2.41" shape="1547.54,3339.53 1547.04,3340.31 1545.72,3340.99"/>
    </edge>
    <edge id=":1172835911_6" function="internal">
        <lane id=":1172835911_6_0" index="0" speed="13.89" length="5.01" shape="1548.43,3344.43 1548.40,3343.05 1547.94,3342.02 1547.05,3341.33 1545.72,3340.99"/>
    </edge>
    <edge id=":1172835911_7" function="internal">
        <lane id=":1172835911_7_0" index="0" speed="13.89" length="9.80" shape="1548.43,3344.43 1549.09,3341.75 1550.31,3339.75 1552.12,3338.43 1554.50,3337.78"/>
    </edge>
    <edge id=":1172835911_8" function="internal">
        <lane id=":1172835911_8_0" index="0" speed="13.89" length="4.82" shape="1548.43,3344.43 1549.40,3343.30 1550.27,3342.99 1551.04,3343.49 1551.71,3344.82"/>
    </edge>
    <edge id=":1172835912_0" function="internal">
        <lane id=":1172835912_0_0" index="0" speed="13.89" length="6.33" shape="1547.42,3039.18 1546.73,3032.88"/>
    </edge>
    <edge id=":1172835912_1" function="internal">
        <lane id=":1172835912_1_0" index="0" speed="13.89" length="4.78" shape="1547.42,3039.18 1547.65,3037.76 1548.73,3036.65 1550.39,3035.96"/>
    </edge>
    <edge id=":1172835912_2" function="internal">
        <lane id=":1172835912_2_0" index="0" speed="13.89" length="2.41" shape="1547.42,3039.18 1548.09,3037.85 1548.86,3037.34"/>
    </edge>
    <edge id=":1172835912_9" function="internal">
        <lane id=":1172835912_9_0" index="0" speed="13.89" length="3.10" shape="1550.39,3035.96 1550.65,3035.85 1553.42,3035.35"/>
    </edge>
    <edge id=":1172835912_10" function="internal">
        <lane id=":1172835912_10_0" index="0" speed="13.89" length="2.41" shape="1548.86,3037.34 1549.73,3037.66 1550.69,3038.79"/>
    </edge>
    <edge id=":1172835912_3" function="internal">
        <lane id=":1172835912_3_0" index="0" speed="13.89" length="5.03" shape="1550.02,3032.56 1550.34,3033.91 1551.02,3034.82 1552.05,3035.30 1553.42,3035.35"/>
    </edge>
    <edge id=":1172835912_4" function="internal">
        <lane id=":1172835912_4_0" index="0" speed="13.89" length="6.26" shape="1550.02,3032.56 1550.69,3038.79"/>
    </edge>
    <edge id=":1172835912_5" function="internal">
        <lane id=":1172835912_5_0" index="0" speed="13.89" length="2.41" shape="1550.02,3032.56 1549.32,3033.88 1548.53,3034.37"/>
    </edge>
    <edge id=":1172835912_11" function="internal">
        <lane id=":1172835912_11_0" index="0" speed="13.89" length="2.41" shape="1548.53,3034.37 1547.67,3034.03 1546.73,3032.88"/>
    </edge>
    <edge id=":1172835912_6" function="internal">
        <lane id=":1172835912_6_0" index="0" speed="13.89" length="5.02" shape="1543.92,3036.24 1545.26,3035.94 1546.18,3035.28 1546.67,3034.26 1546.73,3032.88"/>
    </edge>
    <edge id=":1172835912_7" function="internal">
        <lane id=":1172835912_7_0" index="0" speed="13.89" length="9.55" shape="1543.92,3036.24 1553.42,3035.35"/>
    </edge>
    <edge id=":1172835912_8" function="internal">
        <lane id=":1172835912_8_0" index="0" speed="13.89" length="7.93" shape="1543.92,3036.24 1546.74,3036.21 1548.82,3036.62 1550.13,3037.48 1550.69,3038.79"/>
    </edge>
    <edge id=":1172835917_0" function="internal">
        <lane id=":1172835917_0_0" index="0" speed="15.28" length="5.01" shape="1540.75,2971.10 1540.43,2969.76 1539.75,2968.84 1538.73,2968.35 1537.37,2968.28"/>
    </edge>
    <edge id=":1172835917_1" function="internal">
        <lane id=":1172835917_1_0" index="0" speed="13.89" length="4.82" shape="1540.75,2971.10 1541.45,2969.79 1542.23,2969.30 1543.09,2969.63 1544.03,2970.78"/>
    </edge>
    <edge id=":1172835917_2" function="internal">
        <lane id=":1172835917_2_0" index="0" speed="15.28" length="5.00" shape="1546.83,2967.40 1545.49,2967.72 1544.58,2968.39 1544.10,2969.41 1544.03,2970.78"/>
    </edge>
    <edge id=":1172835917_3" function="internal">
        <lane id=":1172835917_3_0" index="0" speed="16.67" length="9.50" shape="1546.83,2967.40 1537.37,2968.28"/>
        <lane id=":1172835917_3_1" index="1" speed="16.67" length="9.50" shape="1546.52,2964.11 1537.06,2965.00"/>
        <lane id=":1172835917_3_2" index="2" speed="16.67" length="9.50" shape="1546.21,2960.83 1536.75,2961.71"/>
    </edge>
    <edge id=":1199277104_0" function="internal">
        <lane id=":1199277104_0_0" index="0" speed="15.28" length="5.28" shape="1540.23,3439.86 1540.27,3441.36 1540.79,3442.38 1541.80,3442.92 1543.29,3443.00"/>
    </edge>
    <edge id=":1199277104_1" function="internal">
        <lane id=":1199277104_1_0" index="0" speed="13.89" length="4.82" shape="1540.23,3439.86 1539.27,3440.99 1538.40,3441.30 1537.63,3440.80 1536.96,3439.47"/>
    </edge>
    <edge id=":1199277104_2" function="internal">
        <lane id=":1199277104_2_0" index="0" speed="15.28" length="6.03" shape="1533.71,3443.99 1534.94,3443.59 1535.89,3442.70 1536.56,3441.33 1536.96,3439.47"/>
    </edge>
    <edge id=":1199277104_3" function="internal">
        <lane id=":1199277104_3_0" index="0" speed="16.67" length="9.60" shape="1533.71,3443.99 1543.29,3443.00"/>
        <lane id=":1199277104_3_1" index="1" speed="16.67" length="9.60" shape="1534.08,3447.27 1543.60,3446.28"/>
    </edge>
    <edge id=":1246150354_0" function="internal">
        <lane id=":1246150354_0_0" index="0" allow="delivery" speed="11.11" length="5.05" shape="1094.85,1938.18 1094.50,1936.85 1093.80,1935.96 1092.75,1935.50 1091.36,1935.48"/>
    </edge>
    <edge id=":1246150354_1" function="internal">
        <lane id=":1246150354_1_0" index="0" speed="16.67" length="9.68" shape="1094.85,1938.18 1093.58,1928.71"/>
        <lane id=":1246150354_1_1" index="1" speed="16.67" length="9.68" shape="1098.13,1937.81 1096.84,1928.21"/>
        <lane id=":1246150354_1_2" index="2" speed="16.67" length="9.68" shape="1101.41,1937.43 1100.10,1927.71"/>
    </edge>
    <edge id=":1246150354_4" function="internal">
        <lane id=":1246150354_4_0" index="0" allow="delivery" speed="11.11" length="5.71" shape="1095.90,1938.06 1095.20,1936.77 1094.21,1935.91 1092.93,1935.48 1091.36,1935.48"/>
    </edge>
    <edge id=":1246150354_5" function="internal">
        <lane id=":1246150354_5_0" index="0" speed="16.67" length="9.77" shape="1095.90,1938.06 1093.58,1928.71"/>
        <lane id=":1246150354_5_1" index="1" speed="16.67" length="9.77" shape="1099.27,1937.67 1096.84,1928.21"/>
        <lane id=":1246150354_5_2" index="2" speed="16.67" length="9.77" shape="1102.64,1937.29 1100.10,1927.71"/>
    </edge>
    <edge id=":1246150354_8" function="internal">
        <lane id=":1246150354_8_0" index="0" speed="11.11" length="5.03" shape="1090.94,1932.21 1092.27,1931.84 1093.16,1931.14 1093.59,1930.09 1093.58,1928.71"/>
    </edge>
    <edge id=":1246150354_9" function="internal">
        <lane id=":1246150354_9_0" index="0" allow="delivery" speed="5.56" length="4.82" shape="1090.94,1932.21 1092.27,1932.87 1092.78,1933.64 1092.48,1934.51 1091.36,1935.48"/>
    </edge>
    <edge id=":1246320402_0" function="internal">
        <lane id=":1246320402_0_0" index="0" allow="delivery" speed="5.56" length="0.73" shape="1309.00,2633.68 1309.72,2633.77"/>
    </edge>
    <edge id=":1246320518_0" function="internal">
        <lane id=":1246320518_0_0" index="0" speed="11.11" length="25.93" shape="1326.83,2661.42 1327.96,2668.20 1328.98,2674.22 1329.98,2680.24 1331.03,2687.03"/>
        <lane id=":1246320518_0_1" index="1" speed="11.11" length="25.93" shape="1323.57,2661.96 1324.70,2668.72 1325.72,2674.73 1326.71,2680.74 1327.77,2687.52"/>
    </edge>
    <edge id=":1246320518_2" function="internal">
        <lane id=":1246320518_2_0" index="0" speed="8.33" length="25.32" shape="1320.54,2663.29 1321.83,2667.76 1323.93,2673.54 1326.14,2680.25 1327.77,2687.52"/>
    </edge>
    <edge id=":1246320567_0" function="internal">
        <lane id=":1246320567_0_0" index="0" allow="delivery" speed="5.56" length="7.42" shape="1313.82,2631.28 1316.02,2638.37"/>
    </edge>
    <edge id=":1246320567_1" function="internal">
        <lane id=":1246320567_1_0" index="0" allow="delivery" speed="5.56" length="6.87" shape="1310.88,2634.21 1312.97,2635.15 1314.52,2636.15 1315.54,2637.23 1316.02,2638.37"/>
    </edge>
    <edge id=":1246320740_0" function="internal">
        <lane id=":1246320740_0_0" index="0" speed="16.67" length="9.43" shape="1205.58,2887.72 1204.66,2878.31"/>
        <lane id=":1246320740_0_1" index="1" speed="16.67" length="9.43" shape="1208.87,2887.40 1207.95,2878.01"/>
        <lane id=":1246320740_0_2" index="2" speed="16.67" length="9.43" shape="1212.15,2887.07 1211.23,2877.71"/>
    </edge>
    <edge id=":1246320740_3" function="internal">
        <lane id=":1246320740_3_0" index="0" speed="11.11" length="9.70" shape="1215.75,2885.00 1212.39,2882.50 1209.97,2880.50 1208.49,2879.00 1207.95,2878.01"/>
        <lane id=":1246320740_3_1" index="1" speed="11.11" length="9.70" shape="1215.75,2885.00 1213.92,2883.43 1212.56,2881.70 1211.67,2879.79 1211.23,2877.71"/>
    </edge>
    <edge id=":1246320755_0" function="internal">
        <lane id=":1246320755_0_0" index="0" speed="16.67" length="8.05" shape="1195.16,2775.52 1194.38,2767.52"/>
        <lane id=":1246320755_0_1" index="1" speed="16.67" length="8.05" shape="1198.45,2775.21 1197.67,2767.21"/>
        <lane id=":1246320755_0_2" index="2" speed="16.67" length="8.05" shape="1201.74,2774.91 1200.95,2766.89"/>
    </edge>
    <edge id=":1246320755_3" function="internal">
        <lane id=":1246320755_3_0" index="0" allow="delivery" speed="11.11" length="7.71" shape="1201.74,2774.91 1204.85,2767.86"/>
    </edge>
    <edge id=":1246344524_0" function="internal">
        <lane id=":1246344524_0_0" index="0" speed="16.67" length="0.10" shape="1214.55,3106.16 1214.55,3106.22"/>
        <lane id=":1246344524_0_1" index="1" speed="16.67" length="0.10" shape="1217.84,3105.90 1217.84,3105.90"/>
        <lane id=":1246344524_0_2" index="2" speed="16.67" length="0.10" shape="1221.13,3105.65 1221.13,3105.64"/>
    </edge>
    <edge id=":1246344533_0" function="internal">
        <lane id=":1246344533_0_0" index="0" allow="delivery" speed="5.56" length="4.82" shape="1091.78,3796.06 1090.54,3795.24 1090.12,3794.42 1090.53,3793.59 1091.77,3792.76"/>
    </edge>
    <edge id=":1246344540_0" function="internal">
        <lane id=":1246344540_0_0" index="0" speed="16.67" length="0.12" shape="1227.54,3105.33 1227.53,3105.19"/>
        <lane id=":1246344540_0_1" index="1" speed="16.67" length="0.12" shape="1230.83,3104.97 1230.83,3104.97"/>
        <lane id=":1246344540_0_2" index="2" speed="16.67" length="0.12" shape="1234.12,3104.70 1234.12,3104.70"/>
    </edge>
    <edge id=":1246344542_0" function="internal">
        <lane id=":1246344542_0_0" index="0" speed="16.67" length="0.13" shape="1289.38,3699.36 1289.37,3699.21"/>
        <lane id=":1246344542_0_1" index="1" speed="16.67" length="0.13" shape="1292.67,3699.05 1292.66,3699.01"/>
    </edge>
    <edge id=":1246344543_0" function="internal">
        <lane id=":1246344543_0_0" index="0" speed="16.67" length="0.10" shape="1256.33,3390.21 1256.33,3390.18"/>
        <lane id=":1246344543_0_1" index="1" speed="16.67" length="0.10" shape="1259.60,3389.78 1259.60,3389.78"/>
        <lane id=":1246344543_0_2" index="2" speed="16.67" length="0.10" shape="1262.89,3389.46 1262.89,3389.44"/>
    </edge>
    <edge id=":1246428044_0" function="internal">
        <lane id=":1246428044_0_0" index="0" speed="16.67" length="0.16" shape="1658.88,4268.23 1659.07,4268.45"/>
        <lane id=":1246428044_0_1" index="1" speed="16.67" length="0.16" shape="1656.40,4270.40 1656.49,4270.52"/>
        <lane id=":1246428044_0_2" index="2" speed="16.67" length="0.16" shape="1653.91,4272.58 1653.91,4272.58"/>
        <lane id=":1246428044_0_3" index="3" speed="16.67" length="0.16" shape="1651.42,4274.75 1651.42,4274.75"/>
    </edge>
    <edge id=":1277685174_0" function="internal">
        <lane id=":1277685174_0_0" index="0" speed="16.67" length="0.53" shape="1200.45,4004.21 1200.24,4004.36"/>
        <lane id=":1277685174_0_1" index="1" speed="16.67" length="0.53" shape="1198.75,4001.38 1198.11,4001.84"/>
    </edge>
    <edge id=":1277685179_0" function="internal">
        <lane id=":1277685179_0_0" index="0" speed="16.67" length="0.95" shape="1184.61,3992.51 1185.77,3991.67"/>
        <lane id=":1277685179_0_1" index="1" speed="16.67" length="0.95" shape="1186.91,3994.87 1187.29,3994.60"/>
    </edge>
    <edge id=":1277707315_0" function="internal">
        <lane id=":1277707315_0_0" index="0" speed="16.67" length="0.10" shape="1475.91,4074.55 1475.91,4074.55"/>
        <lane id=":1277707315_0_1" index="1" speed="16.67" length="0.10" shape="1478.47,4072.47 1478.47,4072.47"/>
    </edge>
    <edge id=":1277763910_0" function="internal">
        <lane id=":1277763910_0_0" index="0" speed="5.56" length="5.02" shape="1090.42,2027.07 1090.08,2025.74 1089.40,2024.84 1088.36,2024.38 1086.98,2024.35"/>
    </edge>
    <edge id=":1277763910_1" function="internal">
        <lane id=":1277763910_1_0" index="0" allow="delivery" speed="5.56" length="10.36" shape="1090.42,2027.07 1090.52,2024.22 1091.49,2022.09 1093.35,2020.67 1096.08,2019.96"/>
    </edge>
    <edge id=":1277763910_2" function="internal">
        <lane id=":1277763910_2_0" index="0" allow="delivery" speed="5.56" length="2.41" shape="1090.42,2027.07 1091.11,2025.75 1091.89,2025.25"/>
    </edge>
    <edge id=":1277763910_9" function="internal">
        <lane id=":1277763910_9_0" index="0" speed="5.56" length="2.41" shape="1091.89,2025.25 1092.75,2025.57 1093.71,2026.72"/>
    </edge>
    <edge id=":1277763910_3" function="internal">
        <lane id=":1277763910_3_0" index="0" allow="delivery" speed="5.56" length="5.05" shape="1096.44,2023.24 1095.12,2023.58 1094.22,2024.28 1093.75,2025.32 1093.71,2026.72"/>
    </edge>
    <edge id=":1277763910_4" function="internal">
        <lane id=":1277763910_4_0" index="0" speed="5.56" length="9.52" shape="1096.44,2023.24 1086.98,2024.35"/>
    </edge>
    <edge id=":1277763910_5" function="internal">
        <lane id=":1277763910_5_0" index="0" allow="delivery" speed="5.56" length="2.41" shape="1096.44,2023.24 1095.12,2022.55 1094.62,2021.78"/>
    </edge>
    <edge id=":1277763910_10" function="internal">
        <lane id=":1277763910_10_0" index="0" speed="5.56" length="2.41" shape="1094.62,2021.78 1094.94,2020.91 1096.08,2019.96"/>
    </edge>
    <edge id=":1277763910_6" function="internal">
        <lane id=":1277763910_6_0" index="0" allow="delivery" speed="5.56" length="9.57" shape="1086.57,2021.08 1096.08,2019.96"/>
    </edge>
    <edge id=":1277763910_7" function="internal">
        <lane id=":1277763910_7_0" index="0" allow="delivery" speed="5.56" length="10.41" shape="1086.57,2021.08 1089.43,2021.13 1091.57,2022.08 1093.00,2023.95 1093.71,2026.72"/>
    </edge>
    <edge id=":1277763910_8" function="internal">
        <lane id=":1277763910_8_0" index="0" speed="5.56" length="4.82" shape="1086.57,2021.08 1087.91,2021.74 1088.42,2022.51 1088.11,2023.38 1086.98,2024.35"/>
    </edge>
    <edge id=":1277763978_0" function="internal">
        <lane id=":1277763978_0_0" index="0" allow="delivery" speed="5.56" length="4.82" shape="1200.91,3309.29 1199.63,3308.54 1199.17,3307.74 1199.53,3306.89 1200.72,3306.00"/>
    </edge>
    <edge id=":1277763994_0" function="internal">
        <lane id=":1277763994_0_0" index="0" allow="delivery" speed="5.56" length="9.95" shape="1228.66,3308.43 1218.71,3308.23"/>
    </edge>
    <edge id=":1277763994_1" function="internal">
        <lane id=":1277763994_1_0" index="0" allow="delivery" speed="5.56" length="10.39" shape="1228.66,3308.43 1225.58,3306.96 1223.35,3305.34 1221.97,3303.58 1221.44,3301.67"/>
    </edge>
    <edge id=":1277763994_2" function="internal">
        <lane id=":1277763994_2_0" index="0" allow="delivery" speed="5.56" length="10.28" shape="1224.74,3301.51 1224.48,3304.31 1223.39,3306.36 1221.47,3307.67 1218.71,3308.23"/>
    </edge>
    <edge id=":1277763994_3" function="internal">
        <lane id=":1277763994_3_0" index="0" allow="delivery" speed="5.56" length="4.82" shape="1224.74,3301.51 1223.98,3302.78 1223.17,3303.24 1222.33,3302.87 1221.44,3301.67"/>
    </edge>
    <edge id=":1277763994_4" function="internal">
        <lane id=":1277763994_4_0" index="0" allow="delivery" speed="5.56" length="4.99" shape="1218.52,3304.94 1219.86,3304.66 1220.79,3304.03 1221.32,3303.03 1221.44,3301.67"/>
    </edge>
    <edge id=":1277763994_5" function="internal">
        <lane id=":1277763994_5_0" index="0" allow="delivery" speed="5.56" length="4.82" shape="1218.52,3304.94 1219.80,3305.69 1220.26,3306.49 1219.90,3307.33 1218.71,3308.23"/>
    </edge>
    <edge id=":1277764204_0" function="internal">
        <lane id=":1277764204_0_0" index="0" allow="delivery" speed="5.56" length="6.35" shape="1220.99,3292.58 1221.30,3292.37 1222.23,3291.64 1223.79,3290.40 1225.97,3288.65"/>
    </edge>
    <edge id=":1277764204_1" function="internal">
        <lane id=":1277764204_1_0" index="0" allow="delivery" speed="5.56" length="4.82" shape="1220.99,3292.58 1221.75,3291.31 1222.55,3290.85 1223.39,3291.22 1224.28,3292.42"/>
    </edge>
    <edge id=":1277764406_0" function="internal">
        <lane id=":1277764406_0_0" index="0" allow="delivery" speed="11.11" length="6.67" shape="1236.04,3314.39 1235.66,3312.92 1234.83,3311.64 1233.55,3310.56 1231.81,3309.68"/>
    </edge>
    <edge id=":1277764406_1" function="internal">
        <lane id=":1277764406_1_0" index="0" speed="16.67" length="7.43" shape="1236.04,3314.39 1235.21,3307.07"/>
        <lane id=":1277764406_1_1" index="1" speed="16.67" length="7.43" shape="1239.33,3314.07 1238.49,3306.69"/>
        <lane id=":1277764406_1_2" index="2" speed="16.67" length="7.43" shape="1242.61,3313.74 1241.76,3306.30"/>
    </edge>
    <edge id=":1277764581_0" function="internal">
        <lane id=":1277764581_0_0" index="0" speed="16.67" length="0.10" shape="1245.33,3399.80 1245.33,3399.86"/>
        <lane id=":1277764581_0_1" index="1" speed="16.67" length="0.10" shape="1248.61,3399.49 1248.61,3399.49"/>
        <lane id=":1277764581_0_2" index="2" speed="16.67" length="0.10" shape="1251.90,3399.18 1251.90,3399.17"/>
    </edge>
    <edge id=":1277764779_0" function="internal">
        <lane id=":1277764779_0_0" index="0" allow="delivery" speed="5.56" length="4.77" shape="1100.86,2103.41 1099.84,2102.71 1099.08,2101.85 1098.56,2100.82 1098.30,2099.61"/>
    </edge>
    <edge id=":1277764779_1" function="internal">
        <lane id=":1277764779_1_0" index="0" allow="delivery" speed="5.56" length="2.41" shape="1100.86,2103.41 1100.15,2102.10 1100.18,2101.17"/>
    </edge>
    <edge id=":1277764779_4" function="internal">
        <lane id=":1277764779_4_0" index="0" speed="5.56" length="2.41" shape="1100.18,2101.17 1100.93,2100.64 1102.41,2100.50"/>
    </edge>
    <edge id=":1277764779_2" function="internal">
        <lane id=":1277764779_2_0" index="0" allow="delivery" speed="5.56" length="1.56" shape="1101.58,2099.26 1101.66,2099.65 1101.83,2099.99 1102.08,2100.27 1102.41,2100.50"/>
    </edge>
    <edge id=":1277764779_3" function="internal">
        <lane id=":1277764779_3_0" index="0" allow="delivery" speed="5.56" length="2.41" shape="1101.58,2099.26 1100.89,2100.58 1100.11,2101.08"/>
    </edge>
    <edge id=":1277764779_5" function="internal">
        <lane id=":1277764779_5_0" index="0" speed="5.56" length="2.41" shape="1100.11,2101.08 1099.25,2100.75 1098.30,2099.61"/>
    </edge>
    <edge id=":1277764850_0" function="internal">
        <lane id=":1277764850_0_0" index="0" speed="16.67" length="0.10" shape="1195.84,2910.42 1195.84,2910.39"/>
        <lane id=":1277764850_0_1" index="1" speed="16.67" length="0.10" shape="1199.12,2910.06 1199.12,2910.07"/>
        <lane id=":1277764850_0_2" index="2" speed="16.67" length="0.10" shape="1202.40,2909.71 1202.41,2909.74"/>
    </edge>
    <edge id=":1277764860_0" function="internal">
        <lane id=":1277764860_0_0" index="0" speed="16.67" length="7.98" shape="1232.95,3287.80 1232.02,3279.88"/>
        <lane id=":1277764860_0_1" index="1" speed="16.67" length="7.98" shape="1236.22,3287.42 1235.29,3279.50"/>
        <lane id=":1277764860_0_2" index="2" speed="16.67" length="7.98" shape="1239.50,3287.03 1238.57,3279.11"/>
    </edge>
    <edge id=":1277764860_3" function="internal">
        <lane id=":1277764860_3_0" index="0" speed="11.11" length="7.31" shape="1229.01,3286.20 1230.48,3284.77 1231.47,3283.24 1231.98,3281.61 1232.02,3279.88"/>
    </edge>
    <edge id=":1437748070_0" function="internal">
        <lane id=":1437748070_0_0" index="0" allow="delivery" speed="8.33" length="4.82" shape="2017.79,3388.93 2019.26,3389.19 2019.97,3389.77 2019.93,3390.69 2019.13,3391.95"/>
    </edge>
    <edge id=":1441139749_0" function="internal">
        <lane id=":1441139749_0_0" index="0" speed="16.67" length="30.51" shape="799.19,3519.02 807.61,3517.80 813.27,3516.14 818.48,3513.27 825.55,3508.47"/>
        <lane id=":1441139749_0_1" index="1" speed="16.67" length="30.51" shape="799.58,3522.30 808.47,3521.02 814.44,3519.27 819.95,3516.26 827.42,3511.19"/>
        <lane id=":1441139749_0_2" index="2" speed="16.67" length="30.51" shape="799.96,3525.57 809.32,3524.24 815.62,3522.40 821.41,3519.24 829.28,3513.91"/>
    </edge>
    <edge id=":1441139749_3" function="internal">
        <lane id=":1441139749_3_0" index="0" speed="16.67" length="33.21" shape="800.34,3528.85 810.87,3526.74 818.75,3523.94 825.43,3521.49 832.34,3520.38"/>
    </edge>
    <edge id=":1441139749_4" function="internal">
        <lane id=":1441139749_4_0" index="0" speed="16.67" length="32.62" shape="802.13,3532.46 807.39,3527.82 813.22,3523.96 820.29,3519.72 829.28,3513.91"/>
        <lane id=":1441139749_4_1" index="1" speed="16.67" length="32.62" shape="804.51,3534.74 809.73,3530.15 815.45,3526.39 822.36,3522.29 831.15,3516.63"/>
    </edge>
    <edge id=":1441139749_6" function="internal">
        <lane id=":1441139749_6_0" index="0" speed="16.67" length="30.77" shape="804.51,3534.74 810.15,3529.98 816.68,3526.55 824.08,3524.45 832.38,3523.68"/>
    </edge>
    <edge id=":1441139751_0" function="internal">
        <lane id=":1441139751_0_0" index="0" speed="16.67" length="5.48" shape="849.32,3492.48 853.42,3491.36"/>
        <lane id=":1441139751_0_1" index="1" speed="16.67" length="5.48" shape="851.10,3495.26 855.70,3493.74"/>
        <lane id=":1441139751_0_2" index="2" speed="16.67" length="5.48" shape="852.89,3498.04 857.98,3496.13"/>
        <lane id=":1441139751_0_3" index="3" speed="16.67" length="5.48" shape="852.89,3498.04 860.26,3498.52"/>
    </edge>
    <edge id=":1441139751_4" function="internal">
        <lane id=":1441139751_4_0" index="0" speed="19.44" length="6.86" shape="854.67,3500.81 856.66,3499.82 857.87,3499.89 858.30,3501.02 857.95,3503.21"/>
    </edge>
    <edge id=":1799904300_0" function="internal">
        <lane id=":1799904300_0_0" index="0" allow="delivery" speed="5.56" length="7.94" shape="1149.14,2843.17 1148.30,2845.18 1147.02,2846.43 1145.30,2846.93 1143.14,2846.68"/>
    </edge>
    <edge id=":1799904300_1" function="internal">
        <lane id=":1799904300_1_0" index="0" allow="delivery" speed="5.56" length="2.41" shape="1149.14,2843.17 1148.03,2844.16 1147.13,2844.35"/>
    </edge>
    <edge id=":1799904300_4" function="internal">
        <lane id=":1799904300_4_0" index="0" speed="5.56" length="2.41" shape="1147.13,2844.35 1146.44,2843.75 1145.95,2842.34"/>
    </edge>
    <edge id=":1799904300_2" function="internal">
        <lane id=":1799904300_2_0" index="0" allow="delivery" speed="5.56" length="2.59" shape="1143.99,2843.49 1144.69,2843.57 1145.26,2843.41 1145.67,2843.00 1145.95,2842.34"/>
    </edge>
    <edge id=":1799904300_3" function="internal">
        <lane id=":1799904300_3_0" index="0" allow="delivery" speed="5.56" length="2.41" shape="1143.99,2843.49 1144.97,2844.60 1145.16,2845.51"/>
    </edge>
    <edge id=":1799904300_5" function="internal">
        <lane id=":1799904300_5_0" index="0" speed="5.56" length="2.41" shape="1145.16,2845.51 1144.55,2846.20 1143.14,2846.68"/>
    </edge>
    <edge id=":1799904303_0" function="internal">
        <lane id=":1799904303_0_0" index="0" allow="delivery" speed="5.56" length="5.72" shape="1143.57,2745.61 1143.21,2743.95 1142.44,2743.08 1141.28,2742.99 1139.73,2743.69"/>
    </edge>
    <edge id=":1799904303_1" function="internal">
        <lane id=":1799904303_1_0" index="0" allow="delivery" speed="5.56" length="11.04" shape="1143.57,2745.61 1143.51,2742.07 1143.95,2739.19 1144.92,2736.96 1146.39,2735.39"/>
    </edge>
    <edge id=":1799904303_2" function="internal">
        <lane id=":1799904303_2_0" index="0" allow="delivery" speed="5.56" length="4.82" shape="1143.57,2745.61 1144.29,2744.31 1145.08,2743.83 1145.94,2744.17 1146.86,2745.33"/>
    </edge>
    <edge id=":1799904303_3" function="internal">
        <lane id=":1799904303_3_0" index="0" allow="delivery" speed="5.56" length="7.66" shape="1148.32,2738.06 1147.50,2739.05 1146.98,2740.58 1146.77,2742.68 1146.86,2745.33"/>
    </edge>
    <edge id=":1799904303_4" function="internal">
        <lane id=":1799904303_4_0" index="0" allow="delivery" speed="5.56" length="10.27" shape="1148.32,2738.06 1145.86,2739.80 1144.10,2740.98 1142.30,2742.10 1139.73,2743.69"/>
    </edge>
    <edge id=":1799904303_5" function="internal">
        <lane id=":1799904303_5_0" index="0" allow="delivery" speed="5.56" length="4.82" shape="1148.32,2738.06 1146.84,2738.12 1146.02,2737.69 1145.87,2736.78 1146.39,2735.39"/>
    </edge>
    <edge id=":1799904303_6" function="internal">
        <lane id=":1799904303_6_0" index="0" allow="delivery" speed="5.56" length="10.05" shape="1137.99,2740.89 1140.52,2739.32 1142.26,2738.24 1143.97,2737.10 1146.39,2735.39"/>
    </edge>
    <edge id=":1799904303_7" function="internal">
        <lane id=":1799904303_7_0" index="0" allow="delivery" speed="5.56" length="13.22" shape="1137.99,2740.89 1141.57,2739.27 1144.24,2739.48 1146.01,2741.50 1146.86,2745.33"/>
    </edge>
    <edge id=":1799904303_8" function="internal">
        <lane id=":1799904303_8_0" index="0" allow="delivery" speed="5.56" length="4.82" shape="1137.99,2740.89 1139.47,2740.93 1140.26,2741.41 1140.35,2742.33 1139.73,2743.69"/>
    </edge>
    <edge id=":1799904304_0" function="internal">
        <lane id=":1799904304_0_0" index="0" allow="delivery" speed="5.56" length="5.99" shape="1162.13,2732.73 1161.84,2730.92 1161.11,2730.01 1159.94,2729.99 1158.33,2730.86"/>
    </edge>
    <edge id=":1799904304_1" function="internal">